Circuit: * C:\Users\PC16\Downloads\Draft4.asc

.OP point found by inspection.

Date: Fri Jan  5 15:54:50 2024
Total elapsed time: 0.089 seconds.

tnom = 27
temp = 27
method = modified trap
totiter = 8429
traniter = 8429
tranpoints = 2952
accept = 2192
rejected = 760
matrix size = 12
fillins = 4
solver = Normal
Avg thread counts: 1.7/3.0/2.9/1.7
Matrix Compiler1: 758 bytes object code size  0.2/0.2/[0.1]
Matrix Compiler2: 934 bytes object code size  0.1/0.1/[0.1]

